   12
 HF-SCF001/CC-PVDZ  ENERGY=-193.13027277
 C          0.1380055918        0.0059789685       -1.9634072278
 C         -0.5145630852       -0.0211648270       -0.5845653036
 H          0.7264172256        0.9162670295       -2.1084138614
 H         -0.6133110917       -0.0318314899       -2.7544378353
 H          0.8074755652       -0.8474937161       -2.1012273436
 H         -1.1984241450        0.8306127358       -0.4864826388
 C          0.4965215017        0.0232383375        0.5516399121
 H         -1.1235567130       -0.9221484771       -0.4704091882
 H          1.1171245231        0.9243461515        0.4670053823
 H          1.1682723923       -0.8338085641        0.4863281242
 O         -0.1040915861       -0.0524946108        1.8154703280
 H         -0.6612511457        0.7013660422        1.9390792359
