    9
 HF-SCF001/CC-PVDZ  ENERGY=-407.07181609
 C          0.0000072298        0.0000000000        0.0000032861
 C          1.1996120095        0.0000000000       -0.8746045070
 C         -0.8121579754        1.2121557351       -0.2739609718
 C         -0.8121579754       -1.2121557351       -0.2739609718
 C          0.4247274852        0.0000000000        1.4225373446
 N          2.1147333213        0.0000000000       -1.5418073285
 N         -1.4317437388        2.1368388925       -0.4829613340
 N         -1.4317437388       -2.1368388925       -0.4829613340
 N          0.7487317411        0.0000000000        2.5077229803
