    9
 HF-SCF001/CC-PVDZ  ENERGY=-488.19322175
 C          0.00000       0.00000        0.00000
 C          0.00000      -0.6037983820        1.27420
 C          1.15126      -0.3993931393       -0.70934
 C         -1.15126      -0.3993931393       -0.70934
 C          0.00000       1.4025703626        0.14453
 O          0.00000      -1.1004867933        2.32243
 O          2.09835      -0.7279607975       -1.29294
 O         -2.09835      -0.7279607975       -1.29294
 O          0.00000       2.5564252065        0.26339
