   12
 HF-SCF000/CC-PVDZ  ENERGY=-230.72234960
 C          0.0000000000        0.0000000000        1.3886283846
 C          0.0000000000        0.0000000000       -1.3886283846
 C          0.0000000000        1.2025886597        0.6943058591
 C          0.0000000000        1.2025886597       -0.6943058591
 C          0.0000000000       -1.2025886597        0.6943058591
 C          0.0000000000       -1.2025886597       -0.6943058591
 H          0.0000000000        0.0000000000        2.4708573595
 H          0.0000000000        0.0000000000       -2.4708573595
 H          0.0000000000        2.1398048940        1.2354085964
 H          0.0000000000        2.1398048940       -1.2354085964
 H          0.0000000000       -2.1398048940        1.2354085964
 H          0.0000000000       -2.1398048940       -1.2354085964
