    8
 RHF/DZP Energy:   -610.811811249504
 C         -0.0006421456        0.4688429715        0.0431352461
 C          0.0007237364       -0.1782196262        1.2102172924
 C          0.0003142245       -0.1632550945       -1.2387216347
 F         -0.0028782223        1.8216490434        0.0486432964
 F          0.0037501765       -1.5275064909        1.2595650549
 F         -0.0003856389        0.5254327767        2.3628151277
 F          0.0049029593        0.6072911753       -2.3445629341
 F         -0.0056395134       -1.5073901179       -1.3357103637
