    5
 HF-SCF000/CC-PVDZ  ENERGY=-427.34424038
 N          0.0000000000        0.0001188131        0.1798043639
 O          0.0000000000        0.0007387655        1.3416530858
 F          0.0000000000       -1.2087708838       -0.4201753395
 F          1.0466012640        0.6040305703       -0.4211261792
 F         -1.0466012640        0.6040305703       -0.4211261792
