    7
 HF-SCF000/CC-PVDZ  ENERGY=-994.00622173
 S          0.0000000000        0.0000000000        0.0000000000
 F          0.0000000000        0.0000000000        1.5672728339
 F          0.0000000000        0.0000000000       -1.5672728339
 F          1.5672728339        0.0000000000        0.0000000000
 F         -1.5672728339        0.0000000000        0.0000000000
 F          0.0000000000       -1.5672728339        0.0000000000
 F          0.0000000000        1.5672728339        0.0000000000
