    5
 HF-SCF001/CC-PVDZ  ENERGY=-291.24290932
 H          1.2134391328        0.0000000000        0.8581257512
 H          0.0000000000       -1.2134391330       -0.8581257511
 H         -1.2134391328        0.0000000000        0.8581257512
 H          0.0000000000        1.2134391330       -0.8581257511
 Si         0.0000000000        0.0000000000       -0.0000000001
