    5
 HF-SCF001/USERDEF  ENERGY=-82.51110644
 C          0.0000000000        0.0000000000       -0.0000000000
 I          1.7797730797        0.0000000000        1.2583651776
 I         -1.7797730797        0.0000000000        1.2583651776
 I          0.0000000000        1.7797730797       -1.2583651776
 I          0.0000000000       -1.7797730797       -1.2583651776
