    5
 HF-SCF000/CC-PVDZ  ENERGY=-139.04514302
 C         -0.0000050058        0.0000000000       -0.7306691805
 H          1.0295734660        0.0000000000       -1.0869073820
 F          0.0000015596        0.0000000000        0.6349282255
 H         -0.5147716059       -0.8916256514       -1.0868788575
 H         -0.5147716059        0.8916256514       -1.0868788575
