    4
 HF-SCF000/CC-PVDZ  ENERGY=-342.47065993
 H          0.0000000000        0.6742596070        1.2099210472
 H         -1.0477094044        0.6748672984       -0.6044642179
 H          1.0477094044        0.6748672984       -0.6044642179
 P          0.0000000000       -0.0658642902       -0.0000323013
