    4
 HF-SCF001/CC-PVDZ  ENERGY=-639.13971796
 P         -0.5189757267        0.0000000000       -0.0000478354
 F          0.2820498741        1.1925399096       -0.6884428772
 F          0.2820498741       -1.1925399096       -0.6884428772
 F          0.2820045060        0.0000000000        1.3769637421
