   11
 HF-SCF000/CC-PVDZ  ENERGY=-711.47117708
 C          1.2762203795        0.0000000000       -0.0962902443
 C          0.0000000000        0.0000000000       -0.9016202239
 C         -1.2762203795        0.0000000000       -0.0962902443
 H          0.0000000000       -0.8842438926       -1.5350784309
 H          0.0000000000        0.8842438926       -1.5350784309
 F         -2.3098578853        0.0000000000       -0.9203725324
 F          2.3098578853        0.0000000000       -0.9203725324
 F          1.3825839705        1.0641272665        0.6738486812
 F          1.3825839705       -1.0641272665        0.6738486812
 F         -1.3825839705        1.0641272665        0.6738486812
 F         -1.3825839705       -1.0641272665        0.6738486812
