    6
 HF-SCF000/CC-PVDZ  ENERGY=-1913.69430627
 C          0.0000000000       -0.6623743605        0.0000000000
 C          0.0000000000        0.6623743605        0.0000000000
 Cl         0.0000000000       -1.5945043192        1.4484628199
 Cl         0.0000000000       -1.5945043192       -1.4484628199
 Cl         0.0000000000        1.5945043192        1.4484628199
 Cl         0.0000000000        1.5945043192       -1.4484628199
