    5
 HF-SCF001/CC-PVDZ  ENERGY=-40.19871198
 H          0.8906223382        0.0000000000        0.6297655560
 H          0.0000000000       -0.8906223382       -0.6297655560
 H         -0.8906223382        0.0000000000        0.6297655560
 H          0.0000000000        0.8906223382       -0.6297655560
 C          0.0000000000        0.0000000000       -0.0000000000
