   38
 HF-SCF001/CC-PVDZ  ENERGY=-469.60945275
 C         -0.0015503021        0.5084418047        5.7444413259
 H          0.8714032191        1.1699903084        5.7346050807
 H         -0.8792811314        1.1636534954        5.7356543999
 C          0.0007919728       -0.3481345439        4.4791767078
 H          0.8786160175       -1.0045998346        4.4901790118
 H         -0.8730497921       -1.0098890939        4.4905077077
 C         -0.0018707203        0.4691015958        3.1883250959
 H          0.8719771930        1.1305099922        3.1778920946
 H         -0.8795014904        1.1254870760        3.1782740398
 C          0.0022002680       -0.3138471396        7.0304711835
 H         -0.8779858369       -0.9600744470        7.0892699645
 H          0.8868634183       -0.9540533350        7.0879413415
 H          0.0006680313        0.3305834041        7.9126007171
 C          0.0002623712       -0.3882334489        1.9235225964
 H          0.8770738892       -1.0456594893        1.9343940213
 H         -0.8743478395       -1.0486017569        1.9334788527
 C         -0.0003685063        0.4287383977        0.6323321732
 H          0.8749397671        1.0881703034        0.6218128278
 H         -0.8764742947        1.0871101904        0.6219091474
 C         -0.0000029417       -0.4287618427       -0.6323387811
 H          0.8753796538       -1.0880875606       -0.6213749919
 H         -0.8760343264       -1.0872397417       -0.6223622763
 C          0.0012130663        0.3882140066       -1.9235264026
 H          0.8784958360        1.0450120959       -1.9343766574
 H         -0.8729231707        1.0492089004       -1.9334981970
 C         -0.0015290802       -0.4691128669       -3.1883331219
 H          0.8719844823       -1.1309653455       -3.1780492940
 H         -0.8794916090       -1.1250522024       -3.1781416186
 C          0.0013004701        0.3481329300       -4.4791782744
 H          0.8796060204        1.0039499335       -4.4904938143
 H         -0.8720552508        1.0105328929       -4.4901846015
 C         -0.0021901983       -0.5084279632       -5.7444503877
 H          0.8702889730       -1.1706087217       -5.7350113288
 H         -0.8803906677       -1.1630037401       -5.7352787491
 C          0.0016102965        0.3138725803       -7.0304727283
 H         -0.8774676867        0.9616982359       -7.0882724557
 H          0.8873681169        0.9524721409       -7.0889292517
 H         -0.0020866874       -0.3305402141       -7.9126088949
