   50
 HF-SCF001/CC-PVDZ  ENERGY=-625.75915299
 C          0.0012245119        0.3561591502        7.0326504964
 H          0.8796700161        1.0118408623        7.0399588825
 H         -0.8719893715        1.0188103869        7.0384093155
 C         -0.0008521440       -0.4700751380        5.7474963035
 H          0.8731962928       -1.1312736248        5.7419428002
 H         -0.8782819851       -1.1267782514        5.7418114149
 C          0.0013018032        0.3784293179        4.4767285412
 H          0.8777713938        1.0363692874        4.4832706206
 H         -0.8736361913        1.0384151492        4.4818346399
 C         -0.0032985330       -0.4913726283        8.3039976834
 H         -0.8816174616       -1.1458336837        8.2988199515
 H          0.8690659430       -1.1537595757        8.2998359609
 C          0.0014182286       -0.4475882863        3.1912814985
 H          0.8773023912       -1.1063096790        3.1853295723
 H         -0.8741039832       -1.1067936542        3.1854007122
 C          0.0011082334        0.4013350268        1.9208066158
 H          0.8766528687        1.0605106223        1.9266659346
 H         -0.8747352115        1.0601077309        1.9268866760
 C          0.0011263279       -0.4244852581        0.6352070239
 H          0.8772572935       -1.0828748159        0.6288642028
 H         -0.8741342635       -1.0840392583        0.6295948635
 C          0.0000479016        0.4245136007       -0.6352094654
 H          0.8753676256        1.0839877998       -0.6296409221
 H         -0.8760240356        1.0829828994       -0.6288240353
 C         -0.0000926727       -0.4013092755       -1.9208073938
 H          0.8756448056       -1.0602247893       -1.9269326384
 H         -0.8757431515       -1.0603423454       -1.9266188135
 C         -0.0004337284        0.4476117705       -3.1912837307
 H          0.8746689095        1.1073690553       -3.1850897364
 H         -0.8767367905        1.1057807073       -3.1856495434
 C          0.0007869806       -0.3784116127       -4.4767263944
 H          0.8777500740       -1.0356976951       -4.4827458873
 H         -0.8736560428       -1.0390500195       -4.4823479172
 C         -0.0011526158        0.4700866183       -5.7474984151
 H          0.8730663528        1.1310598426       -5.7418978647
 H         -0.8784131801        1.1270157838       -5.7418691513
 C          0.0007387577       -0.3561571937       -7.0326466953
 H          0.8783723256       -1.0129324812       -7.0394181545
 H         -0.8732950511       -1.0177204355       -7.0389330752
 C         -0.0019503689        0.4913727261       -8.3040003034
 H          0.8714862110        1.1523424702       -8.2995080852
 H         -0.8792080203        1.1472588815       -8.2991632914
 C          0.0002163322       -0.3397957601       -9.5843218818
 H          0.8846896835       -0.9805668078       -9.6383055192
 H         -0.8801652687       -0.9862361012       -9.6376125944
 H         -0.0021823254        0.2984000175      -10.4709778462
 C         -0.0002909387        0.3397835351        9.5843254955
 H          0.8850570528        0.9793268327        9.6385296488
 H         -0.8797880749        0.9874440576        9.6374058224
 H         -0.0037905623       -0.2984141977       10.4709763818
