    5
 HF-SCF001/CC-PVDZ  ENERGY=-40.19871198
 C         -0.0000086603        0.0000173181        0.0000006274
 H          0.9659598611        0.4761740880        0.1731829437
 H         -0.5537764884        0.5639307474       -0.7517675933
 H          0.1556281158       -1.0204277345       -0.3525353997
 H         -0.5678461471       -0.0196076916        0.9311225625
